#======================================================================

# CRYSTAL DATA

#----------------------------------------------------------------------

data_VESTA_phase_1


_pd_phase_name                         ''
_cell_length_a                         3.29549
_cell_length_b                         10.93008
_cell_length_c                         4.54364
_cell_angle_alpha                      90
_cell_angle_beta                       90
_cell_angle_gamma                      90
_symmetry_space_group_name_H-M         'P 1'
_symmetry_Int_Tables_number            1

loop_
_symmetry_equiv_pos_as_xyz
   'x, y, z'

loop_
   _atom_site_label
   _atom_site_occupancy
   _atom_site_fract_x
   _atom_site_fract_y
   _atom_site_fract_z
   _atom_site_adp_type
   _atom_site_B_iso_or_equiv
   _atom_site_type_symbol
   P1         1.0     0.000000      0.595857      0.911185     Biso  1.000000 P
   P2         1.0     0.500000      0.904143      0.088815     Biso  1.000000 P
   P3         1.0     0.000000      0.904143      0.411185     Biso  1.000000 P
   P4         1.0     0.500000      0.595857      0.588815     Biso  1.000000 P
   P5         1.0     0.500000      0.095857      0.911185     Biso  1.000000 P
   P6         1.0     0.000000      0.404143      0.088815     Biso  1.000000 P
   P7         1.0     0.500000      0.404143      0.411185     Biso  1.000000 P
   P8         1.0     0.000000      0.095857      0.588815     Biso  1.000000 P
