data_POSCAR_mp157\(0\1\0)
_audit_creation_date              2023-03-19
_audit_creation_method            'Materials Studio'
_symmetry_space_group_name_H-M    'P1'
_symmetry_Int_Tables_number       1
_symmetry_cell_setting            triclinic
loop_
_symmetry_equiv_pos_as_xyz
  x,y,z
_cell_length_a                    4.5436
_cell_length_b                    3.2955
_cell_length_c                    12.0954
_cell_angle_alpha                 90.0000
_cell_angle_beta                  90.0000
_cell_angle_gamma                 90.0000
loop_
_atom_site_label
_atom_site_type_symbol
_atom_site_fract_x
_atom_site_fract_y
_atom_site_fract_z
_atom_site_U_iso_or_equiv
_atom_site_adp_type
_atom_site_occupancy
P1     P     0.91119   0.00000   0.17324   0.01267  Uiso   1.00
P4     P     0.58882   0.50000   0.17324   0.01267  Uiso   1.00
P6     P     0.08882   0.00000   0.00000   0.01267  Uiso   1.00
P7     P     0.41119   0.50000   0.00000   0.01267  Uiso   1.00
